/*--------------------------------*- C++ -*----------------------------------*\
  =========                 |
  \\      /  F ield         | OpenFOAM: The Open Source CFD Toolbox
   \\    /   O peration     | Website:  https://openfoam.org
    \\  /    A nd           | Version:  7
     \\/     M anipulation  |
\*---------------------------------------------------------------------------*/
FoamFile
{
    version     2.0;
    format      ascii;
    class       dictionary;
    location    "system/metal";
    object      fvSolution;
}
// * * * * * * * * * * * * * * * * * * * * * * * * * * * * * * * * * * * * * //

solvers
{
    h
    {
        solver           GAMG;
        smoother         symGaussSeidel;
        tolerance        1e-6;
        relTol           0.1;
    }

    hFinal
    {
        $h;
        relTol           0;
    }
     G
    {
        solver PCG;
        preconditioner DIC;
        tolerance 1e-05;
        relTol 0.1;
    }
}

PIMPLE
{
    nNonOrthogonalCorrectors 0;
}


// ************************************************************************* //
