/*--------------------------------*- C++ -*----------------------------------*\
  =========                 |
  \\      /  F ield         | OpenFOAM: The Open Source CFD Toolbox
   \\    /   O peration     | Website:  https://openfoam.org
    \\  /    A nd           | Version:  7
     \\/     M anipulation  |
\*---------------------------------------------------------------------------*/
FoamFile
{
    version     2.0;
    format      ascii;
    class       dictionary;
    location    "system";
    object      blockMeshDict;
}
// * * * * * * * * * * * * * * * * * * * * * * * * * * * * * * * * * * * * * //

scale 1;

vertices
(
    (-1 -1 -1)
    (1.5 -1 -1)
    (1.5 1.5 -1)
    (-1 1.5 -1)
    (-1 -1 1)
    (1.5 -1 1)
    (1.5 1.5 1)
    (-1 1.5 1)
);

blocks
(
    hex (0 1 2 3 4 5 6 7)(100 100 100) simpleGrading (1 1 1)
);

edges
(
);



boundary
(
	inlet
	{   
		type patch;
		faces
		(
			(0 4 7 3)
		);
	}
	outlet
	{
		type patch;
		faces
		(
			(2 6 5 1)
		);
	}
	atmosphere
	{
		type patch;
		faces
		(
			(3 7 6 2)
		);
    }
    fixedWalls
    {   
        type wall;
        faces
        (
            (1 5 4 0)
        );
	}
	frontAndBack
	{
		type patch;
		faces
	(
	);

	}
);
		

// ************************************************************************* //
