/*--------------------------------*- C++ -*----------------------------------*\
  =========                 |
  \\      /  F ield         | OpenFOAM: The Open Source CFD Toolbox
   \\    /   O peration     | Website:  https://openfoam.org
    \\  /    A nd           | Version:  7
     \\/     M anipulation  |
\*---------------------------------------------------------------------------*/
FoamFile
{
    version     2.0;
    format      ascii;
    class       dictionary;
    location    "system/fluid";
    object      fvSolution;
}
// * * * * * * * * * * * * * * * * * * * * * * * * * * * * * * * * * * * * * //

solvers
{
    Ii
    {
        solver           PBiCG;
	preconditioner   DILU;
        tolerance        1e-7;
        relTol           0.1;
 ;
    }
    rho
    {
        solver          diagonal;
    }

    rhoFinal
    {
        $rho;
    }

    p_rgh
    {
        solver           GAMG;
        smoother         symGaussSeidel;
        tolerance        1e-7;
        relTol           0.01;
    }

    p_rghFinal
    {
        $p_rgh;
        relTol           0;
    }
    G
    {
        solver PCG;
        preconditioner DIC;
        tolerance 1e-05;
        relTol 0.1;
    }

    "(U|h)"
    {
        solver           PBiCGStab;
        preconditioner   DILU;
        tolerance        1e-7;
        relTol           0.1;
    }

    "(U|h)Final"
    {
        $U;
        relTol           0;
    }
}

PIMPLE
{
    momentumPredictor   yes;
}

relaxationFactors
{
    equations
    {
        h               1;
        U               1;
        G               0.7;
    }
}

// ************************************************************************* //
